Version 4
SHEET 1 880 680
WIRE 208 160 208 112
WIRE 208 288 208 240
WIRE 208 416 208 352
FLAG 208 416 0
SYMBOL voltage 208 16 R0
SYMATTR InstName V1
SYMBOL res 192 144 R0
SYMATTR InstName R1
SYMBOL diode 192 288 R0
SYMATTR InstName D1
