Version 4
SHEET 1 880 680
WIRE 176 16 176 -48
WIRE 176 128 176 96
WIRE 176 256 176 192
FLAG 176 256 0
SYMBOL diode 160 128 R0
SYMATTR InstName D1
SYMATTR Value 1N4001
SYMBOL res 160 0 R0
SYMATTR InstName R1
SYMATTR Value 4300
SYMBOL voltage 176 -144 R0
WINDOW 123 0 0 Left 0
WINDOW 39 0 0 Left 0
SYMATTR InstName V1
SYMATTR Value 5
TEXT 142 280 Left 2 !.tran 40u
